*.model meas255v36 nmos level=62 version=2
.model ntft10 nmos level=62 version=2
+ asat=1.047829e+00  at=2.444107e-09  bt=2.526905e-06  lasat=4.262506e-07  blk=1.031018e-03  i0=6.265772e+00
+ i00=6.518711e+00  dd=1.180345e-07  dg=1.739938e-07  delta=4.545246e+00  eta=3.774098e+00  lkink=2.987842e-05
+ mkink=3.756299e-01  vkink=2.211076e+01  mmu=2.092661e+00  mu1=7.973408e-03  mus=7.565115e-01  von=1.439507e+00
+ dvt=4.835731e-01  rd=1.956823e+02  rs=3.928337e+02  eb=6.800000e-01  muo=9.059180e+01  rsh=0
+ tox=1.000000e-07  me=6.782676e+00  meta=2.711613e+00  mss=6.755854e+00  vmax=4.995166e+04  theta=0

