*.model meas176v1 nmos level=62 version=2
.model ntft1 nmos level=62 version=2
+ asat=6.942741e-01  at=6.373259e-10  bt=1.287546e-08  lasat=4.020999e-07  blk=2.106096e-03  i0=2.384946e+01
+ i00=3.049598e+03  dd=2.210899e-07  dg=1.739723e-07  delta=3.933336e+00  eta=3.008936e+00  lkink=5.131877e-06
+ mkink=2.177866e+00  vkink=3.756448e+01  mmu=3.166379e+00  mu1=5.729516e-03  mus=1.968657e+00  von=-1.653523e-01
+ dvt=9.863956e-02  rd=3.591789e+02  rs=2.517146e+02  eb=6.800000e-01  muo=1.786426e+02  rsh=0
+ tox=1.000000e-07  me=2.272168e+00  meta=1.268638e+00  mss=2.922057e+00  vmax=1.076503e+05  theta=0
