*.model meas268v1 pmos level=62 version=2
.model ptft8 pmos level=62 version=2
+ asat=7.818909e-01  at=9.660115e-09  bt=1.514286e-06  lasat=2.583494e-07  blk=1.339147e-03  i0=1.792595e+01
+ i00=6.650958e+02  dd=1.937503e-07  dg=1.437903e-07  delta=3.474301e-01  eta=2.384006e+00  lkink=4.280414e-07
+ mkink=3.611141e+00  vkink=2.343449e+01  mmu=2.303423e+00  mu1=2.311140e-03  mus=5.488689e-01  von=-1.408397e+00
+ dvt=-9.543932e-01  rd=2.417658e+02  rs=4.116542e+00  eb=6.800000e-01  muo=6.054707e+01  rsh=0
+ tox=1.000000e-07  me=2.579650e+00  meta=1.314565e+00  mss=1.647637e+00  vmax=6.450904e+04  theta=0

