* /mnt/ArrayData/Records/GEN-2/tfts/TFT-29B1-1_WP6_1-1-1
* W=5.000000e-05
* L=5.000000e-05
* R value = 1.133948e-01
* leakage current at 1.997761e-01:
*(Vg              Ids)
* -1.399237e+00  1.061560e-14
* -8.995233e-01  1.036595e-14
* -3.994218e-01  4.167452e-14
* leakage current at 9.998560e-01:
*(Vg              Ids)
* -1.299687e+00  1.855770e-14
* -7.995860e-01  1.688030e-14
* -2.995437e-01  1.524788e-13
* leakage current at 5.000256e+00:
*(Vg              Ids)
* -9.993410e-01  4.220816e-13
* -4.992035e-01  3.311950e-13
* -3.592172e-04  1.022201e-11
* kf99 = 6.798667e-12 +/- 5.029317e-13
* kf98 = 8.706887e-23 +/- 5.832323e-24
* kf88 = 1.118277e-24 +/- 8.067131e-25

.model n122v1e2 nmos level=62 version=1 
+ asat=9.337082e-01
+ at=1.003487e-08
+ bt=1.001219e-06
+ lasat=3.078895e-07
+ blk=7.525459e-05
+ i0=2.588863e+01
+ i00=4.910907e+01
+ dd=1.196898e-07
+ dg=1.476137e-07
+ delta=3.369634e+00
+ eta=2.745751e+00
+ lkink=1.907701e-05
+ mkink=5.367105e-01
+ vkink=1.414746e+01
+ mmu=1.130204e+00
+ mu1=2.244032e+00
+ mus=1.383904e+02
+ von=9.041909e-01
+ dvt=3.248688e-01
+ rd=4.147190e+02
+ rs=6.743854e+01
+ eb=6.800000e-01
+ muo=1.270070e+02
+ rsh=0
+ tox=1.000000e-07

