* /mnt/ArrayData/Records/GEN-2/tfts/TFT-29B1-6_WP7_1-1-1
* W=5.000000e-05
* L=5.000000e-05
* R value = 5.608681e-02
* leakage current at 1.996873e-01:
*(Vg              Ids)
* -3.200280e+00  5.342958e-13
* -2.700030e+00  5.336955e-13
* -2.200098e+00  5.389235e-13
* leakage current at 9.997565e-01:
*(Vg              Ids)
* -3.000020e+00  5.661608e-13
* -2.500086e+00  5.613076e-13
* -1.999764e+00  5.839693e-13
* leakage current at 5.000395e+00:
*(Vg              Ids)
* -2.299802e+00  1.776966e-12
* -1.799862e+00  1.596999e-12
* -1.299770e+00  3.143630e-12
* kf99 = 6.362109e-12 +/- 1.601791e-13
* kf98 = 7.343937e-23 +/- 5.335027e-24
* kf88 = 9.724844e-25 +/- 7.141079e-25

.model n125v1e2 nmos level=62 version=1 
+ asat=9.421373e-01
+ at=3.394822e-08
+ bt=3.363768e-06
+ lasat=1.775239e-07
+ blk=1.016308e-03
+ i0=4.504537e+00
+ i00=2.771016e+03
+ dd=1.374088e-07
+ dg=1.650765e-07
+ delta=2.855898e+00
+ eta=6.721596e+00
+ lkink=1.251514e-05
+ mkink=6.158531e-01
+ vkink=1.079706e+01
+ mmu=1.115780e+00
+ mu1=6.014197e+00
+ mus=2.775292e+02
+ von=9.081965e-01
+ dvt=4.154921e-02
+ rd=1.064406e+02
+ rs=2.764425e+02
+ eb=6.800000e-01
+ muo=1.163356e+02
+ rsh=0
+ tox=1.000000e-07

