* /mnt/ArrayData/Records/GEN-2/tfts/TFT-29B1-6_WP18UR_1-1-1
* W=5.000000e-05
* L=5.000000e-05
* R value = 3.357198e-02
* leakage current at 1.996958e-01:
*(Vg              Ids)
* -1.499746e+00  1.570212e-13
* -9.994294e-01  1.559610e-13
* -4.993176e-01  2.913656e-13
* leakage current at 9.997618e-01:
*(Vg              Ids)
* -1.299782e+00  1.853785e-13
* -7.994334e-01  1.801957e-13
* -2.993562e-01  3.324710e-12
* leakage current at 5.000395e+00:
*(Vg              Ids)
* -1.099518e+00  9.904247e-13
* -5.993940e-01  8.552771e-13
* -9.907674e-02  8.842668e-11
* kf99 = 6.578082e-12 +/- 1.807716e-13
* kf98 = 1.077512e-22 +/- 6.771525e-24
* kf88 = 1.095500e-24 +/- 6.549376e-25

.model n157v1e2 nmos level=62 version=1 
+ asat=1.026972e+00
+ at=2.898879e-08
+ bt=1.039726e-06
+ lasat=1.012372e-06
+ blk=1.039699e-03
+ i0=7.894136e+00
+ i00=7.974284e+02
+ dd=1.621763e-07
+ dg=1.532379e-07
+ delta=1.982252e+00
+ eta=2.506280e+00
+ lkink=6.629121e-06
+ mkink=6.323168e-01
+ vkink=9.607319e+00
+ mmu=7.934205e-01
+ mu1=1.542811e+01
+ mus=2.053955e+02
+ von=5.796855e-01
+ dvt=2.627884e-01
+ rd=4.029302e+00
+ rs=2.518703e+00
+ eb=6.800000e-01
+ muo=1.706119e+02
+ rsh=0
+ tox=1.000000e-07

