* /mnt/ArrayData/Records/GEN-2/tfts/TFT-29B1-1_WP18LL_1-1-1
* W=5.000000e-05
* L=5.000000e-05
* R value = 1.983405e-01
* leakage current at 1.998152e-01:
*(Vg              Ids)
* -1.099363e+00  9.090482e-15
* -5.992925e-01  8.980077e-15
* -9.923815e-02  2.097563e-14
* leakage current at 9.998200e-01:
*(Vg              Ids)
* -9.993120e-01  1.252933e-14
* -4.992285e-01  1.179326e-14
* -4.748505e-04  6.217393e-14
* leakage current at 5.000294e+00:
*(Vg              Ids)
* -6.993268e-01  1.756587e-13
* -1.993152e-01  1.395832e-13
* 2.995017e-01  3.873283e-12
* kf99 = 6.288185e-12 +/- 3.073225e-13
* kf98 = 1.184179e-22 +/- 3.992618e-23
* kf88 = 1.617048e-24 +/- 1.009578e-24

.model n254v1e2 nmos level=62 version=1 
+ asat=1.035380e+00
+ at=8.282827e-09
+ bt=2.848963e-07
+ lasat=2.444950e-07
+ blk=4.121079e-04
+ i0=2.326513e+00
+ i00=4.462706e+01
+ dd=1.221489e-07
+ dg=1.460851e-07
+ delta=1.638639e+00
+ eta=2.760391e+00
+ lkink=1.906986e-05
+ mkink=6.085366e-01
+ vkink=9.377790e+00
+ mmu=7.450619e-01
+ mu1=1.380462e+01
+ mus=2.279005e+02
+ von=1.038168e+00
+ dvt=6.270340e-02
+ rd=2.259371e+00
+ rs=7.601854e+00
+ eb=6.800000e-01
+ muo=1.515444e+02
+ rsh=0
+ tox=1.000000e-07

