*.model meas258v143 nmos level=62 version=2
.model ntft9 nmos level=62 version=2
+ asat=7.077579e-01  at=6.600031e-10  bt=1.623326e-06  lasat=3.218751e-07  blk=5.757404e-04  i0=1.735384e+01
+ i00=8.496574e+01  dd=1.293198e-07  dg=1.524782e-07  delta=4.411623e+00  eta=3.464683e+00  lkink=1.780350e-05
+ mkink=3.481322e+00  vkink=5.457318e+01  mmu=3.035456e+00  mu1=7.933683e-03  mus=6.689940e-01  von=1.243837e+00
+ dvt=3.070910e-01  rd=4.422404e+02  rs=3.910523e+02  eb=6.800000e-01  muo=1.426946e+02  rsh=0
+ tox=1.000000e-07  me=5.007572e+00  meta=1.939865e+00  mss=2.764365e+00  vmax=1.173848e+05  theta=0

