*.model meas270v99 pmos level=62 version=2
.model ptft7 pmos level=62 version=2
+ asat=9.809138e-01  at=2.474340e-08  bt=2.382391e-06  lasat=9.874883e-07  blk=1.260339e-03  i0=7.747149e+00
+ i00=3.919193e+02  dd=1.745722e-07  dg=1.324925e-07  delta=2.277852e+00  eta=5.345779e+00  lkink=1.225756e-05
+ mkink=5.615280e-01  vkink=3.193030e+01  mmu=2.682594e+00  mu1=1.722976e-03  mus=4.661564e-01  von=-1.269205e+00
+ dvt=-7.847350e-01  rd=4.603336e+02  rs=9.999986e+00  eb=6.800000e-01  muo=5.548801e+01  rsh=0
+ tox=1.000000e-07  me=2.918956e+00  meta=7.312579e-01  mss=4.626048e+00  vmax=6.837974e+04  theta=0

