*.model meas317v73 pmos level=62 version=2
.model ptft1 pmos level=62 version=2
+ asat=9.432147e-01  at=1.224953e-08  bt=1.159735e-06  lasat=9.808017e-07  blk=8.336301e-04  i0=2.878611e+01
+ i00=5.963389e+02  dd=1.205698e-07  dg=2.619790e-07  delta=2.483871e+00  eta=1.041529e+01  lkink=1.511657e-05
+ mkink=2.958571e+00  vkink=1.310424e+01  mmu=2.629089e+00  mu1=1.147286e-03  mus=3.503905e-01  von=5.245675e-01
+ dvt=-1.224912e+00  rd=3.738982e+02  rs=6.934598e+02  eb=6.800000e-01  muo=5.325621e+01  rsh=0
+ tox=1.000000e-07  me=4.768446e+00  meta=7.745769e-01  mss=2.340755e+00  vmax=1.202282e+05  theta=0

