*.model meas262v1 pmos level=62 version=2
.model ptft10 pmos level=62 version=2
+ asat=7.812631e-01  at=1.911240e-08  bt=1.485723e-06  lasat=1.122490e-07  blk=9.083163e-04  i0=6.518002e+00
+ i00=1.764022e+03  dd=1.332973e-07  dg=1.367913e-07  delta=4.889458e+00  eta=6.530664e-01  lkink=1.859797e-05
+ mkink=1.618986e+00  vkink=3.792296e+00  mmu=1.651942e+00  mu1=3.635289e-03  mus=5.403555e-01  von=-1.662469e+00
+ dvt=-1.170393e+00  rd=3.261798e+02  rs=2.163504e+01  eb=6.800000e-01  muo=7.064497e+01  rsh=0
+ tox=1.000000e-07  me=3.496786e+00  meta=1.397827e+00  mss=2.682021e+00  vmax=8.579687e+04  theta=0
