*.model meas242v1 pmos level=62 version=2
.model ptft5 pmos level=62 version=2
+ asat=6.543624e-01  at=9.939487e-10  bt=1.354085e-06  lasat=9.270219e-07  blk=1.265060e-03  i0=6.032450e+00
+ i00=5.092479e+03  dd=1.252577e-07  dg=1.518909e-07  delta=7.498062e-01  eta=3.359045e+00  lkink=6.421348e-07
+ mkink=2.511436e+00  vkink=2.473883e+01  mmu=2.316575e+00  mu1=8.486250e-03  mus=6.703784e-01  von=-1.077283e+00
+ dvt=-2.945747e-01  rd=2.941836e+02  rs=3.327067e+02  eb=6.800000e-01  muo=6.660440e+01  rsh=0
+ tox=1.000000e-07  me=2.761263e+00  meta=1.329884e+00  mss=4.545761e+00  vmax=2.370433e+04  theta=0
