* /mnt/ArrayData/Records/GEN-2/tfts/TFT-29B1-1_WP6_1-2-1
* W=1.000000e-05
* L=5.000000e-05
* R value = 2.572033e-02
* leakage current at 1.996689e-01:
*(Vg              Ids)
* -3.400242e+00  1.193968e-14
* -2.900236e+00  1.149747e-14
* -2.400002e+00  1.149747e-14
* leakage current at 9.997731e-01:
*(Vg              Ids)
* -3.700300e+00  1.415073e-14
* -3.200300e+00  1.238189e-14
* -2.700026e+00  1.238189e-14
* leakage current at 5.000407e+00:
*(Vg              Ids)
* -1.499716e+00  4.245218e-14
* -9.993952e-01  2.830145e-14
* -4.993338e-01  2.830145e-14
* kf99 = 8.512983e-12 +/- 3.795257e-12
* kf98 = 1.034375e-22 +/- 3.592602e-23
* kf88 = 8.753378e-25 +/- 4.266520e-25

.model n135v1e2 nmos level=62 version=1 
+ asat=9.523659e-01
+ at=1.296327e-08
+ bt=1.863071e-06
+ lasat=2.465415e-07
+ blk=1.052338e-04
+ i0=5.774582e+00
+ i00=3.017273e+02
+ dd=1.264008e-07
+ dg=1.248429e-07
+ delta=2.237946e+00
+ eta=2.939633e+00
+ lkink=1.077310e-05
+ mkink=5.364595e-01
+ vkink=1.223372e+01
+ mmu=8.295226e-01
+ mu1=7.547234e+00
+ mus=2.952611e+02
+ von=1.039221e+00
+ dvt=1.684476e-01
+ rd=6.276557e-02
+ rs=7.548845e+01
+ eb=6.800000e-01
+ muo=1.191495e+02
+ rsh=0
+ tox=1.000000e-07

